12
	Energy:      10.5736998
C         -2.23553        2.31790        0.00000
C         -0.83683        2.28701        0.00000
C         -2.96163        1.12203        0.00000
C         -2.28903       -0.10473        0.00000
C         -0.89032       -0.13561        0.00000
C         -0.16423        1.06026        0.00000
H         -2.75588        3.26695        0.00000
H         -0.27510        3.21217        0.00000
H         -0.36998       -1.08466        0.00000
H          0.91785        1.03636        0.00000
H         -4.04370        1.14592        0.00000
H         -2.85076       -1.02989        0.00000
