41
	Energy:     220.1683906
C         -3.19357        2.83549       -0.62876
C         -1.39751        1.90570       -2.12361
O         -1.90314        0.83267       -2.42301
C         -3.08869        3.63712        0.52249
C         -3.93306        3.41927        1.61582
C         -4.89036        2.40304        1.57081
C         -5.00626        1.60324        0.43159
C         -4.16468        1.81724       -0.66444
H         -4.27781        1.19236       -1.54059
H         -2.35544        4.43216        0.57604
H         -3.84655        4.04055        2.49790
H         -5.54425        2.23743        2.41735
H         -5.75125        0.81876        0.39598
N         -0.04184        2.04170       -2.10383
C          0.84195        0.94419       -2.46445
C          0.97866       -0.09639       -1.42860
N          2.28997        0.01750       -1.19659
C          2.36672        1.12996       -2.11054
H          0.65229        0.50189       -3.46653
O          0.14539       -0.51637       -0.63840
S          2.86166        2.53246       -1.02254
H          3.04668        0.91912       -2.96459
C          3.79228        1.36022        0.04832
C          2.89213        0.08735        0.10989
C          5.16472        1.16042       -0.63957
H          5.05580        0.70655       -1.64572
H          5.85716        0.53529       -0.04773
H          5.67133        2.14235       -0.75995
C          4.00286        1.94737        1.45109
H          3.02703        2.17069        1.93252
H          4.58235        2.89341        1.39438
H          4.55724        1.22970        2.09252
C          3.52565       -1.23186        0.50200
H          2.07261        0.26292        0.84487
O          2.82919       -2.23619        0.51457
O          4.81862       -1.32586        0.87216
H          5.21318       -2.17159        1.12842
H          0.35958        2.96313       -1.88192
C         -2.29112        3.08585       -1.81450
H         -2.91819        3.31106       -2.70351
H         -1.66081        3.98107       -1.62270
