14
	Energy:     111.3593745
S         -3.57894        0.95952        0.44571
O         -4.41393        1.70558        1.49693
O         -3.38062       -0.39085        1.15279
O         -4.68610        0.65847       -0.83278
H         -4.33338       -0.14353       -1.29450
C         -2.02153        1.84435        0.11051
C         -0.86242        0.86691       -0.07715
H         -1.80789        2.52786        0.95933
H         -2.15399        2.45553       -0.80780
N          0.37875        1.59534       -0.31917
H         -1.07413        0.18819       -0.93324
H         -0.74631        0.25601        0.84431
H          0.30157        2.12034       -1.22005
H          1.15685        0.90413       -0.41590
