18
	Energy:       4.6795628
Co         0.05804        0.06302       -0.24965
S          0.45233        2.30225       -0.10613
H         -0.65482        2.52682        0.73185
H          0.81580        3.65230        0.04309
S          2.31270       -0.29356       -0.20496
H          2.34199       -0.81929        1.09522
H          3.69379       -0.53781       -0.30458
S         -0.30761       -2.18668       -0.37020
H         -0.51531       -3.56844       -0.53891
H          0.54928       -2.46860        0.70721
S         -2.19357        0.42389       -0.36143
H         -2.48224       -0.46814        0.68631
H         -3.57490        0.63575       -0.52960
I         -0.09569       -0.03543        2.35581
P          0.19656        0.20856       -2.55221
H         -0.69410        1.29689       -2.60405
H         -0.29951       -1.08169       -2.80188
H          0.39731        0.35014       -3.93764
